$ NASTRAN input file created by the MSC MSC.Nastran input file
$ translator ( MSC.FEA 13.1.116 ) on November  19, 2024 at 10:57:31.
$ Direct Text Input for Nastran System Cell Section
$ Direct Text Input for File Management Section
$ Linear Static Analysis, Database
SOL 101
$ Direct Text Input for Executive Control
CEND
TITLE = MSC.Nastran job created on 14-Nov-24 at 11:45:35
ECHO = NONE
$ Direct Text Input for Global Case Control Data
SUBCASE 1
$ Subcase name : Default
   SUBTITLE=Default
   SPC = 2
   LOAD = 2
   DISPLACEMENT(SORT1,REAL)=ALL
   SPCFORCES(SORT1,REAL)=ALL
   STRESS(SORT1,REAL,VONMISES,BILIN)=ALL
BEGIN BULK
PARAM    POST    0
PARAM   PRTMAXIM YES
$ Direct Text Input for Bulk Data
$ Elements and Element Properties for region : prop
PSOLID   1       1       0
$ Pset: "prop" will be imported as: "psolid.1"
CHEXA    1       1       1       2       6       5       65      66
         70      69
CHEXA    2       1       2       3       7       6       66      67
         71      70
CHEXA    3       1       3       4       8       7       67      68
         72      71
CHEXA    4       1       5       6       10      9       69      70
         74      73
CHEXA    5       1       6       7       11      10      70      71
         75      74
CHEXA    6       1       7       8       12      11      71      72
         76      75
CHEXA    7       1       9       10      14      13      73      74
         78      77
CHEXA    8       1       10      11      15      14      74      75
         79      78
CHEXA    9       1       11      12      16      15      75      76
         80      79
CHEXA    10      1       13      14      18      17      77      78
         82      81
CHEXA    11      1       14      15      19      18      78      79
         83      82
CHEXA    12      1       15      16      20      19      79      80
         84      83
CHEXA    13      1       17      18      22      21      81      82
         86      85
CHEXA    14      1       18      19      23      22      82      83
         87      86
CHEXA    15      1       19      20      24      23      83      84
         88      87
CHEXA    16      1       21      22      26      25      85      86
         90      89
CHEXA    17      1       22      23      27      26      86      87
         91      90
CHEXA    18      1       23      24      28      27      87      88
         92      91
CHEXA    19      1       25      26      30      29      89      90
         94      93
CHEXA    20      1       26      27      31      30      90      91
         95      94
$ ... 2210 like lines cut
$ Referenced Material Records
$ Material Record : mat
$ Description of Material : Date: 14-Nov-24           Time: 11:45:07
MAT1     1      2.1+11          .3
$ Nodes of the Entire Model
GRID     1               0.      0.      0.
GRID     2              .166667  0.      0.
GRID     3              .333333  0.      0.
GRID     4              .5       0.      0.
GRID     5               0.     .2       0.
GRID     6              .166667 .2       0.
GRID     7              .333333 .2       0.
GRID     8              .5      .2       0.
GRID     9               0.     .4       0.
GRID     10             .166667 .4       0.
GRID     11             .333333 .4       0.
GRID     12             .5      .4       0.
GRID     13              0.     .6       0.
GRID     14             .166667 .6       0.
GRID     15             .333333 .6       0.
GRID     16             .5      .6       0.
GRID     17              0.     .8       0.
GRID     18             .166667 .8       0.
GRID     19             .333333 .8       0.
GRID     20             .5      .8       0.
$ ... 1652 like lines cut
$ Loads for Load Case : Default
SPCADD   2       1
LOAD     2      1.      1.       1
$ Displacement Constraints of Load Set : fixed
SPC1     1       123456  1       5       9       13      17      21
         25      29      33      37      41      45      49      53
         57      61      65      69      73      77      81      85
         89      93      97      101     105     109     113     117
         121     125     129     133     137     141     145     149
         153     157     161     165     169     173     177     181
         185     189     193     197     201     205     209     213
         217     221     225     229     233     237     241     245
         249     253     257     261     265     269     273     277
         281     285     289     293     297     301     305     309
         313     317     321     325     329     333     337     341
         345     349     353     357     361     365     369     373
         377     381     385     389     393     397     401     405
         409     413     417     421     425     429     433     437
         441     445     449     453     457     461     465     469
         473     477     481     485     489     493     497     501
         505     509     513     517     521     525     529     533
         537     541     545     549     553     557     561     565
         569     573     577     581     585     589     593     597
         601     605     609     613     617     621     625     629
         633     637     641     645     649     653     657     661
$ ... 12 like lines cut
$ Nodal Forces of Load Set : force
FORCE    1       1138    0      1666.7   0.     -1.      0.
FORCE    1       1252    0      1666.7   0.     -1.      0.
FORCE    1       1366    0      1666.7   0.     -1.      0.
FORCE    1       1480    0      1666.7   0.     -1.      0.
FORCE    1       1594    0      1666.7   0.     -1.      0.
FORCE    1       1708    0      1666.7   0.     -1.      0.
$ Referenced Coordinate Frames
ENDDATA 0f045cd1
