$ NASTRAN input file created by the MSC MSC.Nastran input file
$ translator ( MSC.FEA 13.1.116 ) on November  13, 2024 at 17:25:26.
$ Direct Text Input for Nastran System Cell Section
$ Direct Text Input for File Management Section
$ Linear Static Analysis, Database
SOL 101
$ Direct Text Input for Executive Control
CEND
TITLE = MSC.Nastran job created on 13-Nov-24 at 17:22:14
ECHO = NONE
$ Direct Text Input for Global Case Control Data
SUBCASE 1
$ Subcase name : Default
   SUBTITLE=Default
   SPC = 2
   LOAD = 2
   DISPLACEMENT(SORT1,REAL)=ALL
   SPCFORCES(SORT1,REAL)=ALL
   STRESS(SORT1,REAL,VONMISES,BILIN)=ALL
BEGIN BULK
PARAM    POST    0
PARAM   PRTMAXIM YES
$ Direct Text Input for Bulk Data
$ Elements and Element Properties for region : shell
PSHELL   1       1      .001     1               1
$ Pset: "shell" will be imported as: "pshell.1"
CTRIA3   1       1       91      100     99
CTRIA3   2       1       92      101     91
CTRIA3   3       1       93      102     92
CTRIA3   4       1       94      103     93
CTRIA3   5       1       95      104     94
CTRIA3   6       1       96      105     95
CTRIA3   7       1       97      106     96
CTRIA3   8       1       98      107     97
CTRIA3   9       1       99      108     98
CTRIA3   10      1       3       90      1
CTRIA3   11      1       4       109     3
CTRIA3   12      1       5       110     4
CTRIA3   13      1       6       111     5
CTRIA3   14      1       7       112     6
CTRIA3   15      1       8       113     7
CTRIA3   16      1       9       114     8
CTRIA3   17      1       10      115     9
CTRIA3   18      1       11      116     10
CTRIA3   19      1       12      117     11
CTRIA3   20      1       13      118     12
$ ... 869 like lines cut
$ Referenced Material Records
$ Material Record : steel
$ Description of Material : Date: 13-Nov-24           Time: 17:21:05
MAT1     1      2.1+11          .3
$ Nodes of the Entire Model
GRID*    1                              5.56089-12      2.32458-8
*        0.
GRID     2              3.5      0.      0.
GRID     3              .1       0.      0.
GRID     4              .2       0.      0.
GRID     5              .3       0.      0.
GRID     6              .4       0.      0.
GRID     7              .5       0.      0.
GRID     8              .6       0.      0.
GRID     9              .7       0.      0.
GRID     10             .8       0.      0.
GRID     11             .9       0.      0.
GRID     12             1.       0.      0.
GRID     13             1.1      0.      0.
GRID     14             1.2      0.      0.
GRID     15             1.3      0.      0.
GRID     16             1.4      0.      0.
GRID     17             1.5      0.      0.
GRID     18             1.6      0.      0.
GRID     19             1.7      0.      0.
GRID     20             1.8      0.      0.
GRID     21             1.9      0.      0.
$ ... 25 like lines cut
GRID*    47                             5.56089-12      1.
*        0.
GRID     48             3.4     1.       0.
GRID     49             3.3     1.       0.
GRID     50             3.2     1.       0.
GRID     51             3.1     1.       0.
GRID     52             3.      1.       0.
GRID     53             2.9     1.       0.
GRID     54             2.8     1.       0.
GRID     55             2.7     1.       0.
GRID     56             2.6     1.       0.
GRID     57             2.5     1.       0.
GRID     58             2.4     1.       0.
GRID     59             2.3     1.       0.
GRID     60             2.2     1.       0.
GRID     61             2.1     1.       0.
GRID     62             2.      1.       0.
GRID     63             1.9     1.       0.
GRID     64             1.8     1.       0.
GRID     65             1.7     1.       0.
GRID     66             1.6     1.       0.
GRID     67             1.5     1.       0.
$ ... 14 like lines cut
GRID*    82                             5.56089-12      .9
*        0.
GRID*    83                             5.56089-12      .8
*        0.
GRID*    84                             5.56089-12      .7
*        0.
GRID*    85                             5.56089-12      .6
*        0.
GRID*    86                             5.56089-12      .5
*        0.
GRID*    87                             5.56089-12      .4
*        0.
GRID*    88                             5.56089-12      .3
*        0.
GRID*    89                             5.56089-12      .2
*        0.
GRID*    90                             5.56089-12      .1
*        0.
GRID     91             1.85    .5       0.
GRID     92             1.8232  .431808  0.
GRID     93             1.75666 .400225  0.
GRID     94             1.6872  .422154  0.
GRID     95             1.65136 .483223  0.
GRID     96             1.66383 .550795  0.
GRID     97             1.71638 .59418   0.
GRID     98             1.78243 .594633  0.
GRID     99             1.83211 .55712   0.
GRID     100            1.91377 .544391  0.
GRID     101            1.88996 .443224  0.
GRID     102            1.80931 .356615  0.
GRID     103            1.70288 .342839  0.
GRID     104            1.60425 .417575  0.
GRID     105            1.58382 .532097  0.
GRID     106            1.64719 .624667  0.
GRID     107            1.74728 .659553  0.
GRID     108            1.84399 .620094  0.
GRID     109            .10936  .109214  0.
GRID     110            .236376 .0788356 0.
$ ... 384 like lines cut
$ Loads for Load Case : Default
SPCADD   2       1
LOAD     2      1.      1.       1
$ Displacement Constraints of Load Set : fixed
SPC1     1       123456  1       47
SPC1     1       123456  82      THRU    90
$ Nodal Forces of Load Set : total_force_10000
FORCE    1       2       0      909.1   1.       0.      0.
FORCE    1       37      0      909.1   1.       0.      0.
FORCE    1       38      0      909.1   1.       0.      0.
FORCE    1       39      0      909.1   1.       0.      0.
FORCE    1       40      0      909.1   1.       0.      0.
FORCE    1       41      0      909.1   1.       0.      0.
FORCE    1       42      0      909.1   1.       0.      0.
FORCE    1       43      0      909.1   1.       0.      0.
FORCE    1       44      0      909.1   1.       0.      0.
FORCE    1       45      0      909.1   1.       0.      0.
FORCE    1       46      0      909.1   1.       0.      0.
$ Referenced Coordinate Frames
ENDDATA 837eaa67
