$ NASTRAN input file created by the MSC MSC.Nastran input file
$ translator ( MSC.FEA 13.1.116 ) on November  14, 2024 at 09:40:44.
$ Direct Text Input for Nastran System Cell Section
$ Direct Text Input for File Management Section
$ Linear Static Analysis, Database
SOL 101
$ Direct Text Input for Executive Control
CEND
TITLE = MSC.Nastran job created on 14-Nov-24 at 09:38:46
ECHO = NONE
$ Direct Text Input for Global Case Control Data
SUBCASE 1
$ Subcase name : Default
   SUBTITLE=Default
   SPC = 2
   LOAD = 2
   DISPLACEMENT(SORT1,REAL)=ALL
   SPCFORCES(SORT1,REAL)=ALL
   STRESS(SORT1,REAL,VONMISES,BILIN)=ALL
BEGIN BULK
PARAM    POST    0
PARAM   PRTMAXIM YES
$ Direct Text Input for Bulk Data
$ Elements and Element Properties for region : pop
PSHELL   1       1      .001     1               1
$ Pset: "pop" will be imported as: "pshell.1"
CQUAD4   1       1       91      102     101     100
CQUAD4   2       1       92      104     102     91
CQUAD4   3       1       92      106     105     104
CQUAD4   4       1       93      107     106     92
CQUAD4   5       1       94      108     107     93
CQUAD4   6       1       95      110     109     94
CQUAD4   7       1       95      112     111     110
CQUAD4   8       1       3       113     90      1
CQUAD4   9       1       4       114     113     3
CQUAD4   10      1       5       115     114     4
CQUAD4   11      1       6       116     115     5
CQUAD4   12      1       7       117     116     6
CQUAD4   13      1       8       118     117     7
CQUAD4   14      1       9       119     118     8
CQUAD4   15      1       10      120     119     9
CQUAD4   16      1       11      121     120     10
CQUAD4   17      1       12      122     121     11
CQUAD4   18      1       13      123     122     12
CQUAD4   19      1       14      124     123     13
CQUAD4   20      1       15      125     124     14
$ ... 353 like lines cut
$ Referenced Material Records
$ Material Record : steel
$ Description of Material : Date: 14-Nov-24           Time: 09:35:05
MAT1     1      2.1+11          .3
$ Nodes of the Entire Model
GRID*    1                              5.56089-12      2.32458-8
*        0.
GRID     2              3.5      0.      0.
GRID     3              .1       0.      0.
GRID     4              .2       0.      0.
GRID     5              .3       0.      0.
GRID     6              .4       0.      0.
GRID     7              .5       0.      0.
GRID     8              .6       0.      0.
GRID     9              .7       0.      0.
GRID     10             .8       0.      0.
GRID     11             .9       0.      0.
GRID     12             1.       0.      0.
GRID     13             1.1      0.      0.
GRID     14             1.2      0.      0.
GRID     15             1.3      0.      0.
GRID     16             1.4      0.      0.
GRID     17             1.5      0.      0.
GRID     18             1.6      0.      0.
GRID     19             1.7      0.      0.
GRID     20             1.8      0.      0.
GRID     21             1.9      0.      0.
$ ... 25 like lines cut
GRID*    47                             5.56089-12      1.
*        0.
GRID     48             3.4     1.       0.
GRID     49             3.3     1.       0.
GRID     50             3.2     1.       0.
GRID     51             3.1     1.       0.
GRID     52             3.      1.       0.
GRID     53             2.9     1.       0.
GRID     54             2.8     1.       0.
GRID     55             2.7     1.       0.
GRID     56             2.6     1.       0.
GRID     57             2.5     1.       0.
GRID     58             2.4     1.       0.
GRID     59             2.3     1.       0.
GRID     60             2.2     1.       0.
GRID     61             2.1     1.       0.
GRID     62             2.      1.       0.
GRID     63             1.9     1.       0.
GRID     64             1.8     1.       0.
GRID     65             1.7     1.       0.
GRID     66             1.6     1.       0.
GRID     67             1.5     1.       0.
$ ... 14 like lines cut
GRID*    82                             5.56089-12      .9
*        0.
GRID*    83                             5.56089-12      .8
*        0.
GRID*    84                             5.56089-12      .7
*        0.
GRID*    85                             5.56089-12      .6
*        0.
GRID*    86                             5.56089-12      .5
*        0.
GRID*    87                             5.56089-12      .4
*        0.
GRID*    88                             5.56089-12      .3
*        0.
GRID*    89                             5.56089-12      .2
*        0.
GRID*    90                             5.56089-12      .1
*        0.
GRID     91             1.85    .5       0.
GRID     92             1.82809 .437514  0.
GRID     93             1.77249 .402568  0.
GRID     94             1.70745 .409465  0.
GRID     95             1.66091 .454559  0.
GRID     96             1.65141 .516872  0.
GRID     97             1.68007 .571559  0.
GRID     98             1.73411 .598743  0.
GRID     99             1.7917  .59089   0.
GRID     100            1.8352  .552358  0.
GRID     101            1.88399 .600611  0.
GRID     102            1.91509 .523714  0.
GRID     103            1.97148 .479206  0.
GRID     104            1.89734 .440852  0.
GRID     105            1.8904  .361355  0.
GRID     106            1.83698 .382118  0.
GRID     107            1.78607 .343447  0.
GRID     108            1.72831 .30606   0.
GRID     109            1.65262 .348489  0.
GRID     110            1.62955 .404159  0.
$ ... 313 like lines cut
$ Loads for Load Case : Default
SPCADD   2       1
LOAD     2      1.      1.       1
$ Displacement Constraints of Load Set : fixed
SPC1     1       123456  1       47
SPC1     1       123456  82      THRU    90
$ Nodal Forces of Load Set : force
FORCE    1       2       0      909.1   1.       0.      0.
FORCE    1       37      0      909.1   1.       0.      0.
FORCE    1       38      0      909.1   1.       0.      0.
FORCE    1       39      0      909.1   1.       0.      0.
FORCE    1       40      0      909.1   1.       0.      0.
FORCE    1       41      0      909.1   1.       0.      0.
FORCE    1       42      0      909.1   1.       0.      0.
FORCE    1       43      0      909.1   1.       0.      0.
FORCE    1       44      0      909.1   1.       0.      0.
FORCE    1       45      0      909.1   1.       0.      0.
FORCE    1       46      0      909.1   1.       0.      0.
$ Referenced Coordinate Frames
ENDDATA ebab2d70
