$ NASTRAN input file created by the MSC MSC.Nastran input file
$ translator ( MSC.FEA 13.1.116 ) on November  19, 2024 at 10:35:33.
$ Direct Text Input for Nastran System Cell Section
$ Direct Text Input for File Management Section
$ Linear Static Analysis, Database
SOL 101
$ Direct Text Input for Executive Control
CEND
TITLE = MSC.Nastran job created on 14-Nov-24 at 11:00:49
ECHO = NONE
$ Direct Text Input for Global Case Control Data
SUBCASE 1
$ Subcase name : Default
   SUBTITLE=Default
   SPC = 2
   LOAD = 2
   DISPLACEMENT(SORT1,REAL)=ALL
   SPCFORCES(SORT1,REAL)=ALL
   STRESS(SORT1,REAL,VONMISES,BILIN)=ALL
BEGIN BULK
PARAM    POST    0
PARAM   PRTMAXIM YES
$ Direct Text Input for Bulk Data
$ Elements and Element Properties for region : prop
PSOLID   1       1       0
$ Pset: "prop" will be imported as: "psolid.1"
CTETRA   1       1       11      15      75      12
CTETRA   2       1       79      75      15      80
CTETRA   3       1       16      12      80      15
CTETRA   4       1       76      80      12      75
CTETRA   5       1       12      15      75      80
CTETRA   6       1       16      80      12      17
CTETRA   7       1       76      12      80      77
CTETRA   8       1       13      77      17      12
CTETRA   9       1       81      17      77      80
CTETRA   10      1       12      17      80      77
CTETRA   11      1       13      17      77      14
CTETRA   12      1       81      77      17      82
CTETRA   13      1       18      14      82      17
CTETRA   14      1       78      82      14      77
CTETRA   15      1       14      17      77      82
CTETRA   16      1       19      83      15      20
CTETRA   17      1       79      15      83      80
CTETRA   18      1       16      80      20      15
CTETRA   19      1       84      20      80      83
CTETRA   20      1       15      20      83      80
$ ... 5605 like lines cut
$ Referenced Material Records
$ Material Record : steel
$ Description of Material : Date: 14-Nov-24           Time: 11:00:15
MAT1     1      2.1+11          .3
$ Nodes of the Entire Model
GRID     7              .5      1.      1.
GRID     8              .5      2.      1.
GRID     9              .5      1.      2.
GRID     10             .5      2.      2.
GRID     11              0.      0.      0.
GRID     12             .166667  0.      0.
GRID     13             .333333  0.      0.
GRID     14             .5       0.      0.
GRID     15              0.     .2       0.
GRID     16             .166667 .2       0.
GRID     17             .333333 .2       0.
GRID     18             .5      .2       0.
GRID     19              0.     .4       0.
GRID     20             .166667 .4       0.
GRID     21             .333333 .4       0.
GRID     22             .5      .4       0.
GRID     23              0.     .6       0.
GRID     24             .166667 .6       0.
GRID     25             .333333 .6       0.
GRID     26             .5      .6       0.
$ ... 1652 like lines cut
$ Loads for Load Case : Default
SPCADD   2       1
LOAD     2      1.      1.       1
$ Displacement Constraints of Load Set : FIXED
SPC1     1       123456  11      15      19      23      27      31
         35      39      43      47      51      55      59      63
         67      71      75      79      83      87      91      95
         99      103     107     111     115     119     123     127
         131     135     139     143     147     151     155     159
         163     167     171     175     179     183     187     191
         195     199     203     207     211     215     219     223
         227     231     235     239     243     247     251     255
         259     263     267     271     275     279     283     287
         291     295     299     303     307     311     315     319
         323     327     331     335     339     343     347     351
         355     359     363     367     371     375     379     383
         387     391     395     399     403     407     411     415
         419     423     427     431     435     439     443     447
         451     455     459     463     467     471     475     479
         483     487     491     495     499     503     507     511
         515     519     523     527     531     535     539     543
         547     551     555     559     563     567     571     575
         579     583     587     591     595     599     603     607
         611     615     619     623     627     631     635     639
         643     647     651     655     659     663     667     671
$ ... 12 like lines cut
$ Nodal Forces of Load Set : force
FORCE    1       1148    0      1666.7   0.     -1.      0.
FORCE    1       1262    0      1666.7   0.     -1.      0.
FORCE    1       1376    0      1666.7   0.     -1.      0.
FORCE    1       1490    0      1666.7   0.     -1.      0.
FORCE    1       1604    0      1666.7   0.     -1.      0.
FORCE    1       1718    0      1666.7   0.     -1.      0.
$ Referenced Coordinate Frames
ENDDATA 87a1ac79
